REMARK  Name = PNM
REMARK  9 active torsions:
REMARK  status: ('A' for Active; 'I' for Inactive)
REMARK    1  A    between atoms: C_2  and  CA_13
REMARK    2  A    between atoms: CA_4  and  C_5
REMARK    3  A    between atoms: C_5  and  O_6
REMARK    4  A    between atoms: C_8  and  C_9
REMARK    5  A    between atoms: C_8  and  C_10
REMARK    6  A    between atoms: C_12  and  CA_13
REMARK    7  A    between atoms: CA_13  and  N_14
REMARK    8  A    between atoms: C_15  and  C_17
REMARK    9  A    between atoms: C_17  and  C_18
REMARK                            x       y       z     vdW  Elec       q    Type
REMARK                         _______ _______ _______ _____ _____    ______ ____
ROOT
ATOM     13  CA  UNL     1      -1.161  -0.835   0.222  0.00  0.00    +0.000 C 
ENDROOT
BRANCH  13  12
ATOM      3  N   UNL     1      -0.735   0.615   2.210  0.00  0.00    +0.000 NA
ATOM      4  CA  UNL     1       0.189   0.839   3.325  0.00  0.00    +0.000 C 
ATOM      8  C   UNL     1       1.511   0.048   3.207  0.00  0.00    +0.000 C 
ATOM      9  C   UNL     1       1.736  -0.828   4.441  0.00  0.00    +0.000 C 
ATOM     10  C   UNL     1       2.696   0.990   2.985  0.00  0.00    +0.000 C 
ATOM     11  S   UNL     1       1.200  -0.985   1.712  0.00  0.00    +0.000 S 
ATOM     12  C   UNL     1      -0.634  -0.767   1.657  0.00  0.00    +0.000 C 
ATOM     24  H   UNL     1      -1.667   0.710   2.584  0.00  0.00    +0.000 HD
BRANCH   4   5
ATOM      5  C   UNL     1      -0.494   0.438   4.606  0.00  0.00    +0.000 C 
ATOM      7  OXT UNL     1      -1.346  -0.418   4.593  0.00  0.00    +0.000 OA
BRANCH   5   6
ATOM      6  O   UNL     1      -0.158   1.033   5.761  0.00  0.00    +0.000 OA
ATOM     25  H   UNL     1      -0.597   0.776   6.583  0.00  0.00    +0.000 HD
ENDBRANCH   5   6
ENDBRANCH   4   5
ENDBRANCH  13  12
BRANCH  13  14
ATOM     14  N   UNL     1      -0.516   0.204  -0.584  0.00  0.00    +0.000 N 
ATOM     15  C   UNL     1      -0.319   0.008  -1.903  0.00  0.00    +0.000 C 
ATOM     16  O   UNL     1      -0.676  -1.028  -2.422  0.00  0.00    +0.000 OA
ATOM     26  H   UNL     1      -0.231   1.033  -0.169  0.00  0.00    +0.000 HD
BRANCH  15  17
ATOM     17  C   UNL     1       0.342   1.077  -2.732  0.00  0.00    +0.000 C 
BRANCH  17  18
ATOM     18  C   UNL     1       0.442   0.614  -4.163  0.00  0.00    +0.000 A 
ATOM     19  C   UNL     1      -0.581   0.885  -5.050  0.00  0.00    +0.000 A 
ATOM     20  C   UNL     1      -0.490   0.459  -6.362  0.00  0.00    +0.000 A 
ATOM     21  C   UNL     1       0.626  -0.236  -6.787  0.00  0.00    +0.000 A 
ATOM     22  C   UNL     1       1.650  -0.506  -5.900  0.00  0.00    +0.000 A 
ATOM     23  C   UNL     1       1.561  -0.077  -4.589  0.00  0.00    +0.000 A 
ENDBRANCH  17  18
ENDBRANCH  15  17
ENDBRANCH  13  14
BRANCH  13   2
ATOM      1  O   UNL     1      -3.127   0.310  -0.385  0.00  0.00    +0.000 OA
ATOM      2  C   UNL     1      -2.652  -0.617   0.224  0.00  0.00    +0.000 C 
ENDBRANCH  13   2
TORSDOF 7
