REMARK  Name = HEC
REMARK  14 active torsions:
REMARK  status: ('A' for Active; 'I' for Inactive)
REMARK    1  A    between atoms: C_8  and  C_12
REMARK    2  A    between atoms: C_9  and  C_11
REMARK    3  A    between atoms: C_12  and  C_13
REMARK    4  A    between atoms: C_13  and  C_14
REMARK    5  A    between atoms: C_14  and  O_16
REMARK    6  A    between atoms: C_19  and  C_22
REMARK    7  A    between atoms: C_23  and  C_24
REMARK    8  A    between atoms: C_27  and  C_30
REMARK    9  A    between atoms: C_31  and  C_32
REMARK   10  A    between atoms: C_35  and  C_38
REMARK   11  A    between atoms: C_36  and  C_39
REMARK   12  A    between atoms: C_39  and  C_40
REMARK   13  A    between atoms: C_40  and  C_41
REMARK   14  A    between atoms: C_41  and  O_43
REMARK                            x       y       z     vdW  Elec       q    Type
REMARK                         _______ _______ _______ _____ _____    ______ ____
ROOT
ATOM      1 FE   UNL     1      15.522  27.935  77.126  0.00  0.00    +0.000 Fe
ATOM      2  C   UNL     1      15.607  30.470  74.811  0.00  0.00    +0.000 C 
ATOM      3  C   UNL     1      18.890  27.534  76.792  0.00  0.00    +0.000 C 
ATOM      4  C   UNL     1      15.474  25.549  79.610  0.00  0.00    +0.000 C 
ATOM      5  C   UNL     1      12.137  28.061  77.181  0.00  0.00    +0.000 C 
ATOM      6  N   UNL     1      16.951  28.824  76.033  0.00  0.00    +0.000 N 
ATOM      7  C   UNL     1      16.807  29.877  75.150  0.00  0.00    +0.000 A 
ATOM      8  C   UNL     1      18.105  30.253  74.630  0.00  0.00    +0.000 A 
ATOM      9  C   UNL     1      19.010  29.435  75.177  0.00  0.00    +0.000 A 
ATOM     10  C   UNL     1      18.303  28.522  76.041  0.00  0.00    +0.000 A 
ATOM     11  C   UNL     1      20.541  29.397  74.959  0.00  0.00    +0.000 C 
ATOM     17  N   UNL     1      16.893  26.771  78.005  0.00  0.00    +0.000 N 
ATOM     18  C   UNL     1      18.247  26.743  77.714  0.00  0.00    +0.000 A 
ATOM     19  C   UNL     1      18.887  25.778  78.560  0.00  0.00    +0.000 A 
ATOM     20  C   UNL     1      17.936  25.254  79.345  0.00  0.00    +0.000 A 
ATOM     21  C   UNL     1      16.682  25.864  79.016  0.00  0.00    +0.000 A 
ATOM     22  C   UNL     1      20.402  25.470  78.518  0.00  0.00    +0.000 C 
ATOM     23  C   UNL     1      18.176  24.150  80.430  0.00  0.00    +0.000 C 
ATOM     24  C   UNL     1      18.918  24.683  81.499  0.00  0.00    +0.000 C 
ATOM     25  N   UNL     1      14.094  27.011  78.184  0.00  0.00    +0.000 N 
ATOM     26  C   UNL     1      14.271  26.063  79.176  0.00  0.00    +0.000 A 
ATOM     27  C   UNL     1      12.975  25.602  79.660  0.00  0.00    +0.000 A 
ATOM     28  C   UNL     1      12.061  26.311  78.989  0.00  0.00    +0.000 A 
ATOM     29  C   UNL     1      12.718  27.173  78.056  0.00  0.00    +0.000 A 
ATOM     30  C   UNL     1      12.779  24.528  80.747  0.00  0.00    +0.000 C 
ATOM     31  C   UNL     1      10.494  26.156  79.124  0.00  0.00    +0.000 C 
ATOM     32  C   UNL     1       9.970  26.773  80.223  0.00  0.00    +0.000 C 
ATOM     33  N   UNL     1      14.147  29.048  76.172  0.00  0.00    +0.000 N 
ATOM     34  C   UNL     1      12.776  28.935  76.326  0.00  0.00    +0.000 A 
ATOM     35  C   UNL     1      12.141  29.896  75.454  0.00  0.00    +0.000 A 
ATOM     36  C   UNL     1      13.089  30.565  74.804  0.00  0.00    +0.000 A 
ATOM     37  C   UNL     1      14.375  30.053  75.264  0.00  0.00    +0.000 A 
ATOM     38  C   UNL     1      10.600  30.042  75.374  0.00  0.00    +0.000 C 
ENDROOT
BRANCH   8  12
ATOM     12  C   UNL     1      18.314  31.394  73.613  0.00  0.00    +0.000 C 
BRANCH  12  13
ATOM     13  C   UNL     1      18.118  30.944  72.150  0.00  0.00    +0.000 C 
BRANCH  13  14
ATOM     14  C   UNL     1      17.936  32.093  71.184  0.00  0.00    +0.000 C 
ATOM     15  O   UNL     1      17.984  31.796  69.960  0.00  0.00    +0.000 OA
BRANCH  14  16
ATOM     16  O   UNL     1      17.746  33.219  71.713  0.00  0.00    +0.000 OA
ATOM     44  H   UNL     1      17.631  33.940  71.106  0.00  0.00    +0.000 HD
ENDBRANCH  14  16
ENDBRANCH  13  14
ENDBRANCH  12  13
ENDBRANCH   8  12
BRANCH  36  39
ATOM     39  C   UNL     1      12.956  31.685  73.755  0.00  0.00    +0.000 C 
BRANCH  39  40
ATOM     40  C   UNL     1      13.630  33.026  74.020  0.00  0.00    +0.000 C 
BRANCH  40  41
ATOM     41  C   UNL     1      12.812  33.988  74.834  0.00  0.00    +0.000 C 
ATOM     42  O   UNL     1      12.179  33.453  75.789  0.00  0.00    +0.000 OA
BRANCH  41  43
ATOM     43  O   UNL     1      12.826  35.208  74.518  0.00  0.00    +0.000 OA
ATOM     45  H   UNL     1      12.308  35.816  75.032  0.00  0.00    +0.000 HD
ENDBRANCH  41  43
ENDBRANCH  40  41
ENDBRANCH  39  40
ENDBRANCH  36  39
TORSDOF 8
